notebook_tutorials/synthetic_net_opendss/master_sample_80.dss
clear
new circuit.synthetic_net basekv=157.6864406779661 pu=1.0 phases=3
edit Vsource.source bus1=bus_68.1.2.3

!---------------- LINES ----------------

new linecode.LCode_0 nphases=1 rmatrix=[0.468055] xmatrix=[1.480374] units=km
new line.line_0 bus1=bus_0.1 bus2=bus_1.1 linecode=LCode_0 length=1.0 units=km
new linecode.LCode_1 nphases=1 rmatrix=[0.810103] xmatrix=[1.282514] units=km
new line.line_1 bus1=bus_0.1 bus2=bus_2.1 linecode=LCode_1 length=1.0 units=km
new linecode.LCode_2 nphases=1 rmatrix=[0.915645] xmatrix=[1.242115] units=km
new line.line_2 bus1=bus_3.1 bus2=bus_4.1 linecode=LCode_2 length=1.0 units=km
new linecode.LCode_3 nphases=1 rmatrix=[0.400890] xmatrix=[1.242115] units=km
new line.line_3 bus1=bus_2.1 bus2=bus_4.1 linecode=LCode_3 length=1.0 units=km
new linecode.LCode_4 nphases=1 rmatrix=[0.515378] xmatrix=[1.610440] units=km
new line.line_4 bus1=bus_4.1 bus2=bus_5.1 linecode=LCode_4 length=1.0 units=km
new linecode.LCode_5 nphases=1 rmatrix=[0.734355] xmatrix=[1.242115] units=km
new line.line_5 bus1=bus_5.1 bus2=bus_6.1 linecode=LCode_5 length=1.0 units=km
new linecode.LCode_6 nphases=1 rmatrix=[0.508392] xmatrix=[1.242115] units=km
new line.line_6 bus1=bus_7.1 bus2=bus_8.1 linecode=LCode_6 length=1.0 units=km
new linecode.LCode_7 nphases=1 rmatrix=[0.469605] xmatrix=[1.242115] units=km
new line.line_7 bus1=bus_8.1 bus2=bus_9.1 linecode=LCode_7 length=1.0 units=km
new linecode.LCode_8 nphases=1 rmatrix=[0.625536] xmatrix=[1.664601] units=km
new line.line_8 bus1=bus_3.1 bus2=bus_10.1 linecode=LCode_8 length=1.0 units=km
new linecode.LCode_9 nphases=1 rmatrix=[0.597778] xmatrix=[1.242115] units=km
new line.line_9 bus1=bus_4.1 bus2=bus_10.1 linecode=LCode_9 length=1.0 units=km
new linecode.LCode_10 nphases=1 rmatrix=[0.728930] xmatrix=[1.296442] units=km
new line.line_10 bus1=bus_10.1 bus2=bus_11.1 linecode=LCode_10 length=1.0 units=km
new linecode.LCode_11 nphases=1 rmatrix=[0.536079] xmatrix=[1.280229] units=km
new line.line_11 bus1=bus_1.1 bus2=bus_11.1 linecode=LCode_11 length=1.0 units=km
new linecode.LCode_12 nphases=1 rmatrix=[0.886150] xmatrix=[1.242115] units=km
new line.line_12 bus1=bus_2.1 bus2=bus_11.1 linecode=LCode_12 length=1.0 units=km
new linecode.LCode_13 nphases=1 rmatrix=[0.232904] xmatrix=[1.494896] units=km
new line.line_13 bus1=bus_6.1 bus2=bus_11.1 linecode=LCode_13 length=1.0 units=km
new linecode.LCode_16 nphases=1 rmatrix=[0.898210] xmatrix=[1.242115] units=km
new line.line_16 bus1=bus_12.3 bus2=bus_14.3 linecode=LCode_16 length=1.0 units=km
new linecode.LCode_17 nphases=1 rmatrix=[1.238193] xmatrix=[1.352384] units=km
new line.line_17 bus1=bus_13.3 bus2=bus_14.3 linecode=LCode_17 length=1.0 units=km
new linecode.LCode_18 nphases=1 rmatrix=[0.712841] xmatrix=[1.400766] units=km
new line.line_18 bus1=bus_11.1 bus2=bus_15.1 linecode=LCode_18 length=1.0 units=km
new linecode.LCode_20 nphases=1 rmatrix=[0.763333] xmatrix=[1.242115] units=km
new line.line_20 bus1=bus_15.1 bus2=bus_16.1 linecode=LCode_20 length=1.0 units=km
new linecode.LCode_21 nphases=1 rmatrix=[1.512276] xmatrix=[1.242115] units=km
new line.line_21 bus1=bus_16.1 bus2=bus_17.1 linecode=LCode_21 length=1.0 units=km
new linecode.LCode_23 nphases=1 rmatrix=[0.776188] xmatrix=[1.306768] units=km
new line.line_23 bus1=bus_18.3 bus2=bus_19.3 linecode=LCode_23 length=1.0 units=km
new linecode.LCode_24 nphases=1 rmatrix=[1.131389] xmatrix=[1.480254] units=km
new line.line_24 bus1=bus_14.3 bus2=bus_18.3 linecode=LCode_24 length=1.0 units=km
new linecode.LCode_25 nphases=2 rmatrix=[0.651792 | 0.059160 0.651792] xmatrix=[1.408351 | 1.024695 1.408351] units=km
new line.line_25 bus1=bus_19.2.3 bus2=bus_20.2.3 linecode=LCode_25 length=1.0 units=km
new linecode.LCode_26 nphases=2 rmatrix=[0.949332 | 0.059160 0.949332] xmatrix=[1.295058 | 1.024695 1.295058] units=km
new line.line_26 bus1=bus_20.2.3 bus2=bus_21.2.3 linecode=LCode_26 length=1.0 units=km
new linecode.LCode_27 nphases=2 rmatrix=[0.828808 | 0.059160 0.828808] xmatrix=[1.333216 | 1.024695 1.333216] units=km
new line.line_27 bus1=bus_21.2.3 bus2=bus_22.2.3 linecode=LCode_27 length=1.0 units=km
new linecode.LCode_28 nphases=2 rmatrix=[0.761792 | 0.059160 0.761792] xmatrix=[1.340068 | 1.024695 1.340068] units=km
new line.line_28 bus1=bus_22.2.3 bus2=bus_23.2.3 linecode=LCode_28 length=1.0 units=km
new linecode.LCode_29 nphases=2 rmatrix=[0.710800 | 0.059160 0.710800] xmatrix=[1.334191 | 1.024695 1.334191] units=km
new line.line_29 bus1=bus_22.2.3 bus2=bus_24.2.3 linecode=LCode_29 length=1.0 units=km
new linecode.LCode_30 nphases=1 rmatrix=[0.347962] xmatrix=[1.418973] units=km
new line.line_30 bus1=bus_24.3 bus2=bus_26.3 linecode=LCode_30 length=1.0 units=km
new linecode.LCode_31 nphases=1 rmatrix=[0.501716] xmatrix=[1.425514] units=km
new line.line_31 bus1=bus_26.3 bus2=bus_27.3 linecode=LCode_31 length=1.0 units=km
new linecode.LCode_33 nphases=1 rmatrix=[1.015510] xmatrix=[1.242115] units=km
new line.line_33 bus1=bus_7.1 bus2=bus_29.1 linecode=LCode_33 length=1.0 units=km
new linecode.LCode_35 nphases=1 rmatrix=[0.806890] xmatrix=[1.242115] units=km
new line.line_35 bus1=bus_16.1 bus2=bus_30.1 linecode=LCode_35 length=1.0 units=km
new linecode.LCode_36 nphases=1 rmatrix=[0.612195] xmatrix=[1.438530] units=km
new line.line_36 bus1=bus_28.1 bus2=bus_30.1 linecode=LCode_36 length=1.0 units=km
new linecode.LCode_38 nphases=1 rmatrix=[0.980479] xmatrix=[1.242115] units=km
new line.line_38 bus1=bus_30.1 bus2=bus_31.1 linecode=LCode_38 length=1.0 units=km
new linecode.LCode_40 nphases=1 rmatrix=[1.155462] xmatrix=[1.453096] units=km
new line.line_40 bus1=bus_14.3 bus2=bus_32.3 linecode=LCode_40 length=1.0 units=km
new linecode.LCode_41 nphases=1 rmatrix=[0.722201] xmatrix=[1.242115] units=km
new line.line_41 bus1=bus_18.3 bus2=bus_33.3 linecode=LCode_41 length=1.0 units=km
new linecode.LCode_42 nphases=1 rmatrix=[0.613331] xmatrix=[1.242115] units=km
new line.line_42 bus1=bus_34.3 bus2=bus_35.3 linecode=LCode_42 length=1.0 units=km
new linecode.LCode_43 nphases=1 rmatrix=[0.692671] xmatrix=[1.391892] units=km
new line.line_43 bus1=bus_34.3 bus2=bus_36.3 linecode=LCode_43 length=1.0 units=km
new linecode.LCode_44 nphases=1 rmatrix=[1.150358] xmatrix=[1.254726] units=km
new line.line_44 bus1=bus_32.3 bus2=bus_36.3 linecode=LCode_44 length=1.0 units=km
new linecode.LCode_45 nphases=1 rmatrix=[0.744844] xmatrix=[1.292510] units=km
new line.line_45 bus1=bus_33.3 bus2=bus_35.3 linecode=LCode_45 length=1.0 units=km
new linecode.LCode_46 nphases=1 rmatrix=[0.799818] xmatrix=[1.700278] units=km
new line.line_46 bus1=bus_33.3 bus2=bus_36.3 linecode=LCode_46 length=1.0 units=km
new linecode.LCode_47 nphases=1 rmatrix=[1.121743] xmatrix=[1.250201] units=km
new line.line_47 bus1=bus_36.3 bus2=bus_38.3 linecode=LCode_47 length=1.0 units=km
new linecode.LCode_48 nphases=1 rmatrix=[0.580405] xmatrix=[1.242115] units=km
new line.line_48 bus1=bus_36.3 bus2=bus_39.3 linecode=LCode_48 length=1.0 units=km
new linecode.LCode_49 nphases=1 rmatrix=[0.279824] xmatrix=[1.266058] units=km
new line.line_49 bus1=bus_29.1 bus2=bus_37.1 linecode=LCode_49 length=1.0 units=km
new linecode.LCode_50 nphases=2 rmatrix=[0.566852 | 0.059160 0.566852] xmatrix=[1.288844 | 1.024695 1.288844] units=km
new line.line_50 bus1=bus_38.2.3 bus2=bus_39.2.3 linecode=LCode_50 length=1.0 units=km
new linecode.LCode_51 nphases=2 rmatrix=[0.580909 | 0.059160 0.580909] xmatrix=[1.316779 | 1.024695 1.316779] units=km
new line.line_51 bus1=bus_39.2.3 bus2=bus_40.2.3 linecode=LCode_51 length=1.0 units=km
new linecode.LCode_52 nphases=2 rmatrix=[0.786305 | 0.059160 0.786305] xmatrix=[1.346705 | 1.024695 1.346705] units=km
new line.line_52 bus1=bus_39.2.3 bus2=bus_41.2.3 linecode=LCode_52 length=1.0 units=km
new linecode.LCode_53 nphases=2 rmatrix=[0.917259 | 0.059160 0.917259] xmatrix=[1.242115 | 1.024695 1.242115] units=km
new line.line_53 bus1=bus_40.2.3 bus2=bus_41.2.3 linecode=LCode_53 length=1.0 units=km
new linecode.LCode_54 nphases=1 rmatrix=[1.025373] xmatrix=[1.242115] units=km
new line.line_54 bus1=bus_42.3 bus2=bus_43.3 linecode=LCode_54 length=1.0 units=km
new linecode.LCode_55 nphases=1 rmatrix=[1.196230] xmatrix=[1.406565] units=km
new line.line_55 bus1=bus_33.3 bus2=bus_42.3 linecode=LCode_55 length=1.0 units=km
new linecode.LCode_56 nphases=1 rmatrix=[0.192969] xmatrix=[1.242115] units=km
new line.line_56 bus1=bus_43.3 bus2=bus_44.3 linecode=LCode_56 length=1.0 units=km
new linecode.LCode_58 nphases=1 rmatrix=[0.209254] xmatrix=[1.242115] units=km
new line.line_58 bus1=bus_45.2 bus2=bus_46.2 linecode=LCode_58 length=1.0 units=km
new linecode.LCode_59 nphases=1 rmatrix=[0.565796] xmatrix=[1.242115] units=km
new line.line_59 bus1=bus_45.2 bus2=bus_47.2 linecode=LCode_59 length=1.0 units=km
new linecode.LCode_60 nphases=1 rmatrix=[0.727856] xmatrix=[1.242115] units=km
new line.line_60 bus1=bus_46.2 bus2=bus_48.2 linecode=LCode_60 length=1.0 units=km
new linecode.LCode_61 nphases=2 rmatrix=[0.970512 | 0.059160 0.970512] xmatrix=[1.430545 | 1.024695 1.430545] units=km
new line.line_61 bus1=bus_41.2.3 bus2=bus_48.2.3 linecode=LCode_61 length=1.0 units=km
new linecode.LCode_62 nphases=2 rmatrix=[0.729201 | 0.059160 0.729201] xmatrix=[1.332724 | 1.024695 1.332724] units=km
new line.line_62 bus1=bus_41.2.3 bus2=bus_48.2.3 linecode=LCode_62 length=1.0 units=km
new linecode.LCode_63 nphases=1 rmatrix=[0.318746] xmatrix=[1.525204] units=km
new line.line_63 bus1=bus_44.3 bus2=bus_48.3 linecode=LCode_63 length=1.0 units=km
new linecode.LCode_64 nphases=2 rmatrix=[0.190346 | 0.059160 0.190346] xmatrix=[1.243959 | 1.024695 1.243959] units=km
new line.line_64 bus1=bus_47.2.3 bus2=bus_48.2.3 linecode=LCode_64 length=1.0 units=km
new linecode.LCode_65 nphases=2 rmatrix=[0.244118 | 0.059160 0.244118] xmatrix=[1.242115 | 1.024695 1.242115] units=km
new line.line_65 bus1=bus_48.2.3 bus2=bus_49.2.3 linecode=LCode_65 length=1.0 units=km
new linecode.LCode_66 nphases=1 rmatrix=[1.187140] xmatrix=[1.242115] units=km
new line.line_66 bus1=bus_48.3 bus2=bus_50.3 linecode=LCode_66 length=1.0 units=km
new linecode.LCode_67 nphases=1 rmatrix=[1.070079] xmatrix=[1.242115] units=km
new line.line_67 bus1=bus_50.3 bus2=bus_51.3 linecode=LCode_67 length=1.0 units=km
new linecode.LCode_69 nphases=1 rmatrix=[0.869318] xmatrix=[1.334416] units=km
new line.line_69 bus1=bus_52.1 bus2=bus_53.1 linecode=LCode_69 length=1.0 units=km
new linecode.LCode_72 nphases=1 rmatrix=[0.522552] xmatrix=[1.420942] units=km
new line.line_72 bus1=bus_53.1 bus2=bus_54.1 linecode=LCode_72 length=1.0 units=km
new linecode.LCode_73 nphases=1 rmatrix=[0.558531] xmatrix=[1.317496] units=km
new line.line_73 bus1=bus_53.1 bus2=bus_55.1 linecode=LCode_73 length=1.0 units=km
new linecode.LCode_74 nphases=1 rmatrix=[0.126189] xmatrix=[1.295567] units=km
new line.line_74 bus1=bus_54.1 bus2=bus_55.1 linecode=LCode_74 length=1.0 units=km
new linecode.LCode_76 nphases=2 rmatrix=[0.222274 | 0.059160 0.222274] xmatrix=[1.242115 | 1.024695 1.242115] units=km
new line.line_76 bus1=bus_49.2.3 bus2=bus_56.2.3 linecode=LCode_76 length=1.0 units=km
new linecode.LCode_78 nphases=1 rmatrix=[0.343224] xmatrix=[1.372199] units=km
new line.line_78 bus1=bus_50.3 bus2=bus_57.3 linecode=LCode_78 length=1.0 units=km
new linecode.LCode_79 nphases=1 rmatrix=[0.664999] xmatrix=[1.404098] units=km
new line.line_79 bus1=bus_53.1 bus2=bus_58.1 linecode=LCode_79 length=1.0 units=km
new linecode.LCode_80 nphases=1 rmatrix=[0.220028] xmatrix=[1.287812] units=km
new line.line_80 bus1=bus_55.1 bus2=bus_58.1 linecode=LCode_80 length=1.0 units=km
new linecode.LCode_81 nphases=1 rmatrix=[0.719987] xmatrix=[1.286531] units=km
new line.line_81 bus1=bus_55.1 bus2=bus_58.1 linecode=LCode_81 length=1.0 units=km
new linecode.LCode_82 nphases=1 rmatrix=[0.736972] xmatrix=[1.466471] units=km
new line.line_82 bus1=bus_54.1 bus2=bus_58.1 linecode=LCode_82 length=1.0 units=km
new linecode.LCode_83 nphases=1 rmatrix=[0.385894] xmatrix=[1.242115] units=km
new line.line_83 bus1=bus_58.1 bus2=bus_59.1 linecode=LCode_83 length=1.0 units=km
new linecode.LCode_84 nphases=1 rmatrix=[0.787849] xmatrix=[1.578100] units=km
new line.line_84 bus1=bus_58.1 bus2=bus_60.1 linecode=LCode_84 length=1.0 units=km
new linecode.LCode_85 nphases=1 rmatrix=[0.651585] xmatrix=[1.242115] units=km
new line.line_85 bus1=bus_59.1 bus2=bus_60.1 linecode=LCode_85 length=1.0 units=km
new linecode.LCode_86 nphases=1 rmatrix=[0.721110] xmatrix=[2.020650] units=km
new line.line_86 bus1=bus_59.1 bus2=bus_61.1 linecode=LCode_86 length=1.0 units=km
new linecode.LCode_87 nphases=1 rmatrix=[1.000035] xmatrix=[1.292281] units=km
new line.line_87 bus1=bus_60.1 bus2=bus_61.1 linecode=LCode_87 length=1.0 units=km
new linecode.LCode_88 nphases=1 rmatrix=[0.450107] xmatrix=[1.242115] units=km
new line.line_88 bus1=bus_62.1 bus2=bus_63.1 linecode=LCode_88 length=1.0 units=km
new linecode.LCode_89 nphases=1 rmatrix=[0.922606] xmatrix=[1.312927] units=km
new line.line_89 bus1=bus_37.1 bus2=bus_64.1 linecode=LCode_89 length=1.0 units=km
new linecode.LCode_90 nphases=1 rmatrix=[0.281465] xmatrix=[1.242115] units=km
new line.line_90 bus1=bus_63.1 bus2=bus_64.1 linecode=LCode_90 length=1.0 units=km
new linecode.LCode_91 nphases=2 rmatrix=[0.158928 | 0.059160 0.158928] xmatrix=[1.242115 | 1.024695 1.242115] units=km
new line.line_91 bus1=bus_48.2.3 bus2=bus_65.2.3 linecode=LCode_91 length=1.0 units=km
new linecode.LCode_92 nphases=2 rmatrix=[0.321682 | 0.059160 0.321682] xmatrix=[1.242115 | 1.024695 1.242115] units=km
new line.line_92 bus1=bus_48.2.3 bus2=bus_65.2.3 linecode=LCode_92 length=1.0 units=km
new linecode.LCode_95 nphases=2 rmatrix=[0.250195 | 0.059160 0.250195] xmatrix=[1.242115 | 1.024695 1.242115] units=km
new line.line_95 bus1=bus_65.2.3 bus2=bus_66.2.3 linecode=LCode_95 length=1.0 units=km
new linecode.LCode_96 nphases=1 rmatrix=[0.442829] xmatrix=[1.242115] units=km
new line.line_96 bus1=bus_46.2 bus2=bus_68.2 linecode=LCode_96 length=1.0 units=km
new linecode.LCode_97 nphases=2 rmatrix=[0.406495 | 0.059160 0.406495] xmatrix=[1.242115 | 1.024695 1.242115] units=km
new line.line_97 bus1=bus_48.2.3 bus2=bus_68.2.3 linecode=LCode_97 length=1.0 units=km
new linecode.LCode_98 nphases=2 rmatrix=[0.572098 | 0.059160 0.572098] xmatrix=[1.258458 | 1.024695 1.258458] units=km
new line.line_98 bus1=bus_68.2.3 bus2=bus_69.2.3 linecode=LCode_98 length=1.0 units=km
new linecode.LCode_99 nphases=2 rmatrix=[0.711011 | 0.059160 0.711011] xmatrix=[1.242115 | 1.024695 1.242115] units=km
new line.line_99 bus1=bus_23.2.3 bus2=bus_69.2.3 linecode=LCode_99 length=1.0 units=km
new linecode.LCode_100 nphases=2 rmatrix=[0.638814 | 0.059160 0.638814] xmatrix=[1.242115 | 1.024695 1.242115] units=km
new line.line_100 bus1=bus_69.2.3 bus2=bus_70.2.3 linecode=LCode_100 length=1.0 units=km
new linecode.LCode_101 nphases=2 rmatrix=[0.657134 | 0.059160 0.657134] xmatrix=[1.452016 | 1.024695 1.452016] units=km
new line.line_101 bus1=bus_23.2.3 bus2=bus_71.2.3 linecode=LCode_101 length=1.0 units=km
new linecode.LCode_102 nphases=2 rmatrix=[0.339208 | 0.059160 0.339208] xmatrix=[1.470299 | 1.024695 1.470299] units=km
new line.line_102 bus1=bus_70.2.3 bus2=bus_71.2.3 linecode=LCode_102 length=1.0 units=km
new linecode.LCode_103 nphases=2 rmatrix=[0.913397 | 0.059160 0.913397] xmatrix=[1.253472 | 1.024695 1.253472] units=km
new line.line_103 bus1=bus_70.2.3 bus2=bus_72.2.3 linecode=LCode_103 length=1.0 units=km
new linecode.LCode_104 nphases=2 rmatrix=[0.528604 | 0.059160 0.528604] xmatrix=[1.637958 | 1.024695 1.637958] units=km
new line.line_104 bus1=bus_69.2.3 bus2=bus_73.2.3 linecode=LCode_104 length=1.0 units=km
new linecode.LCode_105 nphases=2 rmatrix=[0.905376 | 0.059160 0.905376] xmatrix=[1.494307 | 1.024695 1.494307] units=km
new line.line_105 bus1=bus_69.2.3 bus2=bus_74.2.3 linecode=LCode_105 length=1.0 units=km
new linecode.LCode_106 nphases=2 rmatrix=[0.373558 | 0.059160 0.373558] xmatrix=[1.266791 | 1.024695 1.266791] units=km
new line.line_106 bus1=bus_68.2.3 bus2=bus_74.2.3 linecode=LCode_106 length=1.0 units=km
new linecode.LCode_107 nphases=2 rmatrix=[0.859772 | 0.059160 0.859772] xmatrix=[1.242115 | 1.024695 1.242115] units=km
new line.line_107 bus1=bus_73.2.3 bus2=bus_74.2.3 linecode=LCode_107 length=1.0 units=km
new linecode.LCode_108 nphases=2 rmatrix=[0.221968 | 0.059160 0.221968] xmatrix=[1.267794 | 1.024695 1.267794] units=km
new line.line_108 bus1=bus_75.1.2 bus2=bus_76.1.2 linecode=LCode_108 length=1.0 units=km
new linecode.LCode_109 nphases=2 rmatrix=[0.281125 | 0.059160 0.281125] xmatrix=[1.287813 | 1.024695 1.287813] units=km
new line.line_109 bus1=bus_68.1.2 bus2=bus_76.1.2 linecode=LCode_109 length=1.0 units=km
new linecode.LCode_110 nphases=1 rmatrix=[0.313708] xmatrix=[1.242115] units=km
new line.line_110 bus1=bus_74.2 bus2=bus_76.2 linecode=LCode_110 length=1.0 units=km
new linecode.LCode_111 nphases=2 rmatrix=[0.683965 | 0.059160 0.683965] xmatrix=[1.242115 | 1.024695 1.242115] units=km
new line.line_111 bus1=bus_76.1.2 bus2=bus_77.1.2 linecode=LCode_111 length=1.0 units=km
new linecode.LCode_112 nphases=2 rmatrix=[1.138961 | 0.059160 1.138961] xmatrix=[1.242115 | 1.024695 1.242115] units=km
new line.line_112 bus1=bus_77.1.2 bus2=bus_78.1.2 linecode=LCode_112 length=1.0 units=km
new linecode.LCode_113 nphases=2 rmatrix=[0.339701 | 0.059160 0.339701] xmatrix=[1.242115 | 1.024695 1.242115] units=km
new line.line_113 bus1=bus_76.1.2 bus2=bus_79.1.2 linecode=LCode_113 length=1.0 units=km
new linecode.LCode_114 nphases=2 rmatrix=[0.267479 | 0.059160 0.267479] xmatrix=[1.505265 | 1.024695 1.505265] units=km
new line.line_114 bus1=bus_76.1.2 bus2=bus_79.1.2 linecode=LCode_114 length=1.0 units=km
new linecode.LCode_115 nphases=2 rmatrix=[1.241931 | 0.059160 1.241931] xmatrix=[1.242115 | 1.024695 1.242115] units=km
new line.line_115 bus1=bus_78.1.2 bus2=bus_79.1.2 linecode=LCode_115 length=1.0 units=km
new linecode.LCode_116 nphases=2 rmatrix=[0.197817 | 0.059160 0.197817] xmatrix=[1.514781 | 1.024695 1.514781] units=km
new line.line_116 bus1=bus_76.1.2 bus2=bus_81.1.2 linecode=LCode_116 length=1.0 units=km
new linecode.LCode_117 nphases=2 rmatrix=[0.230327 | 0.059160 0.230327] xmatrix=[1.242115 | 1.024695 1.242115] units=km
new line.line_117 bus1=bus_81.1.2 bus2=bus_82.1.2 linecode=LCode_117 length=1.0 units=km
new linecode.LCode_118 nphases=2 rmatrix=[0.808221 | 0.059160 0.808221] xmatrix=[1.242115 | 1.024695 1.242115] units=km
new line.line_118 bus1=bus_82.1.2 bus2=bus_83.1.2 linecode=LCode_118 length=1.0 units=km
new linecode.LCode_119 nphases=1 rmatrix=[0.566817] xmatrix=[1.403533] units=km
new line.line_119 bus1=bus_82.1 bus2=bus_84.1 linecode=LCode_119 length=1.0 units=km
new linecode.LCode_120 nphases=1 rmatrix=[0.866945] xmatrix=[1.242115] units=km
new line.line_120 bus1=bus_83.1 bus2=bus_84.1 linecode=LCode_120 length=1.0 units=km
new linecode.LCode_121 nphases=1 rmatrix=[0.537584] xmatrix=[1.350996] units=km
new line.line_121 bus1=bus_84.1 bus2=bus_85.1 linecode=LCode_121 length=1.0 units=km
new linecode.LCode_122 nphases=1 rmatrix=[0.387259] xmatrix=[1.261935] units=km
new line.line_122 bus1=bus_84.1 bus2=bus_87.1 linecode=LCode_122 length=1.0 units=km
new linecode.LCode_123 nphases=1 rmatrix=[0.612143] xmatrix=[1.432343] units=km
new line.line_123 bus1=bus_84.1 bus2=bus_88.1 linecode=LCode_123 length=1.0 units=km
new linecode.LCode_124 nphases=1 rmatrix=[0.926589] xmatrix=[1.380873] units=km
new line.line_124 bus1=bus_87.1 bus2=bus_88.1 linecode=LCode_124 length=1.0 units=km
new linecode.LCode_125 nphases=1 rmatrix=[0.785868] xmatrix=[1.300351] units=km
new line.line_125 bus1=bus_88.1 bus2=bus_89.1 linecode=LCode_125 length=1.0 units=km
new linecode.LCode_126 nphases=1 rmatrix=[0.691672] xmatrix=[1.242115] units=km
new line.line_126 bus1=bus_88.1 bus2=bus_89.1 linecode=LCode_126 length=1.0 units=km
new linecode.LCode_130 nphases=1 rmatrix=[1.265737] xmatrix=[1.242115] units=km
new line.line_130 bus1=bus_90.2 bus2=bus_91.2 linecode=LCode_130 length=1.0 units=km
new linecode.LCode_131 nphases=1 rmatrix=[0.829859] xmatrix=[1.244777] units=km
new line.line_131 bus1=bus_91.2 bus2=bus_92.2 linecode=LCode_131 length=1.0 units=km
new linecode.LCode_132 nphases=1 rmatrix=[1.218581] xmatrix=[1.318334] units=km
new line.line_132 bus1=bus_91.2 bus2=bus_93.2 linecode=LCode_132 length=1.0 units=km
new linecode.LCode_133 nphases=1 rmatrix=[0.897653] xmatrix=[1.242115] units=km
new line.line_133 bus1=bus_92.2 bus2=bus_93.2 linecode=LCode_133 length=1.0 units=km
new linecode.LCode_134 nphases=1 rmatrix=[0.958052] xmatrix=[1.242115] units=km
new line.line_134 bus1=bus_93.2 bus2=bus_94.2 linecode=LCode_134 length=1.0 units=km
new linecode.LCode_135 nphases=2 rmatrix=[0.588002 | 0.059160 0.588002] xmatrix=[1.395237 | 1.024695 1.395237] units=km
new line.line_135 bus1=bus_79.1.2 bus2=bus_95.1.2 linecode=LCode_135 length=1.0 units=km
new linecode.LCode_136 nphases=2 rmatrix=[0.270654 | 0.059160 0.270654] xmatrix=[1.407638 | 1.024695 1.407638] units=km
new line.line_136 bus1=bus_81.1.2 bus2=bus_95.1.2 linecode=LCode_136 length=1.0 units=km
new linecode.LCode_137 nphases=1 rmatrix=[1.137138] xmatrix=[1.242115] units=km
new line.line_137 bus1=bus_93.2 bus2=bus_95.2 linecode=LCode_137 length=1.0 units=km
new linecode.LCode_138 nphases=2 rmatrix=[0.573526 | 0.059160 0.573526] xmatrix=[1.333005 | 1.024695 1.333005] units=km
new line.line_138 bus1=bus_79.1.2 bus2=bus_96.1.2 linecode=LCode_138 length=1.0 units=km
new linecode.LCode_139 nphases=2 rmatrix=[0.512645 | 0.059160 0.512645] xmatrix=[1.397852 | 1.024695 1.397852] units=km
new line.line_139 bus1=bus_79.1.2 bus2=bus_97.1.2 linecode=LCode_139 length=1.0 units=km
new linecode.LCode_140 nphases=2 rmatrix=[0.670730 | 0.059160 0.670730] xmatrix=[1.242115 | 1.024695 1.242115] units=km
new line.line_140 bus1=bus_79.1.2 bus2=bus_98.1.2 linecode=LCode_140 length=1.0 units=km
new linecode.LCode_141 nphases=1 rmatrix=[0.608612] xmatrix=[1.242115] units=km
new line.line_141 bus1=bus_91.2 bus2=bus_99.2 linecode=LCode_141 length=1.0 units=km
new linecode.LCode_142 nphases=1 rmatrix=[0.615001] xmatrix=[1.397879] units=km
new line.line_142 bus1=bus_93.2 bus2=bus_99.2 linecode=LCode_142 length=1.0 units=km
new linecode.LCode_143 nphases=2 rmatrix=[0.748191 | 0.059160 0.748191] xmatrix=[1.242115 | 1.024695 1.242115] units=km
new line.line_143 bus1=bus_94.1.2 bus2=bus_95.1.2 linecode=LCode_143 length=1.0 units=km
new linecode.LCode_144 nphases=2 rmatrix=[0.157550 | 0.059160 0.157550] xmatrix=[1.447608 | 1.024695 1.447608] units=km
new line.line_144 bus1=bus_95.1.2 bus2=bus_96.1.2 linecode=LCode_144 length=1.0 units=km
new linecode.LCode_145 nphases=2 rmatrix=[0.229624 | 0.059160 0.229624] xmatrix=[1.242115 | 1.024695 1.242115] units=km
new line.line_145 bus1=bus_97.1.2 bus2=bus_99.1.2 linecode=LCode_145 length=1.0 units=km
new linecode.LCode_146 nphases=2 rmatrix=[0.199660 | 0.059160 0.199660] xmatrix=[1.242115 | 1.024695 1.242115] units=km
new line.line_146 bus1=bus_98.1.2 bus2=bus_99.1.2 linecode=LCode_146 length=1.0 units=km
new linecode.LCode_147 nphases=2 rmatrix=[0.292013 | 0.059160 0.292013] xmatrix=[1.242115 | 1.024695 1.242115] units=km
new line.line_147 bus1=bus_99.1.2 bus2=bus_100.1.2 linecode=LCode_147 length=1.0 units=km
new linecode.LCode_148 nphases=1 rmatrix=[0.300032] xmatrix=[1.242115] units=km
new line.line_148 bus1=bus_91.2 bus2=bus_101.2 linecode=LCode_148 length=1.0 units=km
new linecode.LCode_149 nphases=1 rmatrix=[0.766150] xmatrix=[1.242115] units=km
new line.line_149 bus1=bus_100.2 bus2=bus_101.2 linecode=LCode_149 length=1.0 units=km
new linecode.LCode_150 nphases=2 rmatrix=[0.558530 | 0.059160 0.558530] xmatrix=[1.449191 | 1.024695 1.449191] units=km
new line.line_150 bus1=bus_99.1.2 bus2=bus_102.1.2 linecode=LCode_150 length=1.0 units=km
new linecode.LCode_151 nphases=2 rmatrix=[1.063510 | 0.059160 1.063510] xmatrix=[1.242115 | 1.024695 1.242115] units=km
new line.line_151 bus1=bus_99.1.2 bus2=bus_103.1.2 linecode=LCode_151 length=1.0 units=km
new linecode.LCode_152 nphases=2 rmatrix=[0.696723 | 0.059160 0.696723] xmatrix=[1.516204 | 1.024695 1.516204] units=km
new line.line_152 bus1=bus_102.1.2 bus2=bus_103.1.2 linecode=LCode_152 length=1.0 units=km
new linecode.LCode_153 nphases=1 rmatrix=[1.005524] xmatrix=[1.242115] units=km
new line.line_153 bus1=bus_102.1 bus2=bus_104.1 linecode=LCode_153 length=1.0 units=km
new linecode.LCode_154 nphases=2 rmatrix=[1.177570 | 0.059160 1.177570] xmatrix=[1.447195 | 1.024695 1.447195] units=km
new line.line_154 bus1=bus_99.1.2 bus2=bus_105.1.2 linecode=LCode_154 length=1.0 units=km
new linecode.LCode_155 nphases=1 rmatrix=[0.550332] xmatrix=[1.242115] units=km
new line.line_155 bus1=bus_103.1 bus2=bus_104.1 linecode=LCode_155 length=1.0 units=km
new linecode.LCode_156 nphases=1 rmatrix=[0.516462] xmatrix=[1.242115] units=km
new line.line_156 bus1=bus_104.1 bus2=bus_105.1 linecode=LCode_156 length=1.0 units=km
new linecode.LCode_157 nphases=1 rmatrix=[0.671555] xmatrix=[1.256628] units=km
new line.line_157 bus1=bus_104.1 bus2=bus_106.1 linecode=LCode_157 length=1.0 units=km
new linecode.LCode_158 nphases=1 rmatrix=[0.693166] xmatrix=[1.308998] units=km
new line.line_158 bus1=bus_104.1 bus2=bus_107.1 linecode=LCode_158 length=1.0 units=km
new linecode.LCode_159 nphases=2 rmatrix=[0.915863 | 0.059160 0.915863] xmatrix=[1.242115 | 1.024695 1.242115] units=km
new line.line_159 bus1=bus_105.1.2 bus2=bus_106.1.2 linecode=LCode_159 length=1.0 units=km
new linecode.LCode_161 nphases=1 rmatrix=[0.358653] xmatrix=[1.420760] units=km
new line.line_161 bus1=bus_102.2 bus2=bus_109.2 linecode=LCode_161 length=1.0 units=km
new linecode.LCode_162 nphases=1 rmatrix=[0.985734] xmatrix=[1.446254] units=km
new line.line_162 bus1=bus_108.2 bus2=bus_109.2 linecode=LCode_162 length=1.0 units=km
new linecode.LCode_163 nphases=1 rmatrix=[0.827997] xmatrix=[1.524302] units=km
new line.line_163 bus1=bus_109.2 bus2=bus_110.2 linecode=LCode_163 length=1.0 units=km
new linecode.LCode_164 nphases=1 rmatrix=[1.071902] xmatrix=[1.279372] units=km
new line.line_164 bus1=bus_109.2 bus2=bus_111.2 linecode=LCode_164 length=1.0 units=km
new linecode.LCode_165 nphases=1 rmatrix=[0.778321] xmatrix=[1.242115] units=km
new line.line_165 bus1=bus_16.1 bus2=bus_112.1 linecode=LCode_165 length=1.0 units=km
new linecode.LCode_166 nphases=1 rmatrix=[0.661645] xmatrix=[1.242115] units=km
new line.line_166 bus1=bus_31.1 bus2=bus_112.1 linecode=LCode_166 length=1.0 units=km
new linecode.LCode_167 nphases=1 rmatrix=[0.795635] xmatrix=[1.404651] units=km
new line.line_167 bus1=bus_31.1 bus2=bus_113.1 linecode=LCode_167 length=1.0 units=km
new linecode.LCode_168 nphases=1 rmatrix=[0.987165] xmatrix=[1.319938] units=km
new line.line_168 bus1=bus_26.3 bus2=bus_114.3 linecode=LCode_168 length=1.0 units=km
new linecode.LCode_170 nphases=1 rmatrix=[1.207964] xmatrix=[1.343858] units=km
new line.line_170 bus1=bus_11.1 bus2=bus_116.1 linecode=LCode_170 length=1.0 units=km
new linecode.LCode_171 nphases=2 rmatrix=[0.701513 | 0.059160 0.701513] xmatrix=[1.499867 | 1.024695 1.499867] units=km
new line.line_171 bus1=bus_74.2.3 bus2=bus_117.2.3 linecode=LCode_171 length=1.0 units=km
new linecode.LCode_172 nphases=1 rmatrix=[0.210427] xmatrix=[1.242115] units=km
new line.line_172 bus1=bus_75.2 bus2=bus_117.2 linecode=LCode_172 length=1.0 units=km

!---------------- LOADS ----------------

new load.load_0_A bus1=bus_0.1 Phases=1 kv=157.6864406779661 kw=1759.1012121020094 kvar=576.9851975694592 vminpu=0.85
new load.load_1_A bus1=bus_1.1 Phases=1 kv=157.6864406779661 kw=1534.5252505842905 kvar=503.3242821916473 vminpu=0.85
new load.load_2_A bus1=bus_2.1 Phases=1 kv=157.6864406779661 kw=1336.1003334845627 kvar=438.2409093829366 vminpu=0.85
new load.load_3_A bus1=bus_3.1 Phases=1 kv=157.6864406779661 kw=2128.7711876773024 kvar=698.2369495581552 vminpu=0.85
new load.load_4_A bus1=bus_4.1 Phases=1 kv=157.6864406779661 kw=2121.198483750738 kvar=695.7531026702421 vminpu=0.85
new load.load_5_A bus1=bus_5.1 Phases=1 kv=157.6864406779661 kw=1040.1461712370174 kvar=341.1679441657417 vminpu=0.85
new load.load_6_A bus1=bus_6.1 Phases=1 kv=157.6864406779661 kw=3002.440485990857 kvar=984.800479405001 vminpu=0.85
new load.load_7_A bus1=bus_7.1 Phases=1 kv=157.6864406779661 kw=1602.4991420015124 kvar=525.6197185764961 vminpu=0.85
new load.load_8_A bus1=bus_8.1 Phases=1 kv=157.6864406779661 kw=2436.428416331879 kvar=799.1485205568563 vminpu=0.85
new load.load_9_A bus1=bus_9.1 Phases=1 kv=157.6864406779661 kw=2095.991841079634 kvar=687.48532387412 vminpu=0.85
new load.load_10_A bus1=bus_10.1 Phases=1 kv=157.6864406779661 kw=1686.6235980991205 kvar=553.2125401765115 vminpu=0.85
new load.load_11_A bus1=bus_11.1 Phases=1 kv=157.6864406779661 kw=2064.1233831104737 kvar=677.0324696602354 vminpu=0.85
new load.load_12_C bus1=bus_12.3 Phases=1 kv=157.6864406779661 kw=1320.793372337538 kvar=433.2202261267125 vminpu=0.85
new load.load_13_C bus1=bus_13.3 Phases=1 kv=157.6864406779661 kw=2509.214491298531 kvar=823.0223531459181 vminpu=0.85
new load.load_14_C bus1=bus_14.3 Phases=1 kv=157.6864406779661 kw=2315.9478206674844 kvar=759.6308851789349 vminpu=0.85
new load.load_15_A bus1=bus_15.1 Phases=1 kv=157.6864406779661 kw=2269.6262567714566 kvar=744.4374122210378 vminpu=0.85
new load.load_16_A bus1=bus_16.1 Phases=1 kv=157.6864406779661 kw=2130.7807401095592 kvar=698.8960827559355 vminpu=0.85
new load.load_17_A bus1=bus_17.1 Phases=1 kv=157.6864406779661 kw=2299.387498679595 kvar=754.1990995669072 vminpu=0.85
new load.load_18_C bus1=bus_18.3 Phases=1 kv=157.6864406779661 kw=2230.192468570412 kvar=731.5031296910952 vminpu=0.85
new load.load_19_B bus1=bus_19.2 Phases=1 kv=157.6864406779661 kw=1059.540102225674 kvar=347.52915353002106 vminpu=0.85
new load.load_19_C bus1=bus_19.3 Phases=1 kv=157.6864406779661 kw=482.1909913869061 kvar=158.15864517490522 vminpu=0.85
new load.load_20_B bus1=bus_20.2 Phases=1 kv=157.6864406779661 kw=2043.0741571844533 kvar=670.1283235565007 vminpu=0.85
new load.load_20_C bus1=bus_20.3 Phases=1 kv=157.6864406779661 kw=57.36838694843141 kvar=18.816830919085504 vminpu=0.85
new load.load_21_B bus1=bus_21.2 Phases=1 kv=157.6864406779661 kw=1091.8950686141352 kvar=358.14158250543636 vminpu=0.85
new load.load_21_C bus1=bus_21.3 Phases=1 kv=157.6864406779661 kw=740.0482435938973 kvar=242.73582389879832 vminpu=0.85
new load.load_22_B bus1=bus_22.2 Phases=1 kv=157.6864406779661 kw=1645.1525075080906 kvar=539.6100224626538 vminpu=0.85
new load.load_22_C bus1=bus_22.3 Phases=1 kv=157.6864406779661 kw=162.96763782428425 kvar=53.45338520636524 vminpu=0.85
new load.load_23_B bus1=bus_23.2 Phases=1 kv=157.6864406779661 kw=901.5864786386932 kvar=295.7203649934914 vminpu=0.85
new load.load_23_C bus1=bus_23.3 Phases=1 kv=157.6864406779661 kw=1197.6439507223654 kvar=392.82721583693586 vminpu=0.85
new load.load_24_B bus1=bus_24.2 Phases=1 kv=157.6864406779661 kw=1303.279601150896 kvar=427.4757091774939 vminpu=0.85
new load.load_24_C bus1=bus_24.3 Phases=1 kv=157.6864406779661 kw=964.4118988439114 kvar=316.32710282080296 vminpu=0.85
new load.load_25_B bus1=bus_25.2 Phases=1 kv=157.6864406779661 kw=206.15658518309888 kvar=67.61935994005644 vminpu=0.85
new load.load_25_C bus1=bus_25.3 Phases=1 kv=157.6864406779661 kw=2467.2028411449046 kvar=809.2425318955287 vminpu=0.85
new load.load_26_C bus1=bus_26.3 Phases=1 kv=157.6864406779661 kw=2147.647133935297 kvar=704.4282599307775 vminpu=0.85
new load.load_27_C bus1=bus_27.3 Phases=1 kv=157.6864406779661 kw=1921.4643192469944 kvar=630.2402967130142 vminpu=0.85
new load.load_28_A bus1=bus_28.1 Phases=1 kv=157.6864406779661 kw=2608.325783468017 kvar=855.5308569775096 vminpu=0.85
new load.load_29_A bus1=bus_29.1 Phases=1 kv=157.6864406779661 kw=1991.3304498945931 kvar=653.1563875654266 vminpu=0.85
new load.load_30_A bus1=bus_30.1 Phases=1 kv=157.6864406779661 kw=2015.029700422373 kvar=660.9297417385384 vminpu=0.85
new load.load_31_A bus1=bus_31.1 Phases=1 kv=157.6864406779661 kw=2244.588739279728 kvar=736.2251064837509 vminpu=0.85
new load.load_32_C bus1=bus_32.3 Phases=1 kv=157.6864406779661 kw=2356.863939159597 kvar=773.0513720443479 vminpu=0.85
new load.load_33_C bus1=bus_33.3 Phases=1 kv=157.6864406779661 kw=2120.4475957340246 kvar=695.5068114007601 vminpu=0.85
new load.load_34_C bus1=bus_34.3 Phases=1 kv=157.6864406779661 kw=1682.452414066654 kvar=551.8443918138626 vminpu=0.85
new load.load_35_C bus1=bus_35.3 Phases=1 kv=157.6864406779661 kw=2167.8680614909367 kvar=711.0607241690273 vminpu=0.85
new load.load_36_C bus1=bus_36.3 Phases=1 kv=157.6864406779661 kw=2029.1224026250752 kvar=665.5521480610247 vminpu=0.85
new load.load_37_A bus1=bus_37.1 Phases=1 kv=157.6864406779661 kw=2183.2295083907766 kvar=716.0992787521748 vminpu=0.85
new load.load_38_B bus1=bus_38.2 Phases=1 kv=157.6864406779661 kw=607.3434318138767 kvar=199.20864563495155 vminpu=0.85
new load.load_38_C bus1=bus_38.3 Phases=1 kv=157.6864406779661 kw=1350.0073011855632 kvar=442.8023947888647 vminpu=0.85
new load.load_39_B bus1=bus_39.2 Phases=1 kv=157.6864406779661 kw=2109.1915139717576 kvar=691.8148165827365 vminpu=0.85
new load.load_39_C bus1=bus_39.3 Phases=1 kv=157.6864406779661 kw=41.17948816048787 kvar=13.506872116640022 vminpu=0.85
new load.load_40_B bus1=bus_40.2 Phases=1 kv=157.6864406779661 kw=1236.3681854771803 kvar=405.52876483651517 vminpu=0.85
new load.load_40_C bus1=bus_40.3 Phases=1 kv=157.6864406779661 kw=938.7692161153244 kvar=307.91630288582644 vminpu=0.85
new load.load_41_B bus1=bus_41.2 Phases=1 kv=157.6864406779661 kw=1264.4550750264104 kvar=414.7412646086626 vminpu=0.85
new load.load_41_C bus1=bus_41.3 Phases=1 kv=157.6864406779661 kw=1448.592949074587 kvar=475.1384872964646 vminpu=0.85
new load.load_42_C bus1=bus_42.3 Phases=1 kv=157.6864406779661 kw=1556.0806339590038 kvar=510.39444793855324 vminpu=0.85
new load.load_43_C bus1=bus_43.3 Phases=1 kv=157.6864406779661 kw=2200.289120194413 kvar=721.6948314237675 vminpu=0.85
new load.load_44_C bus1=bus_44.3 Phases=1 kv=157.6864406779661 kw=1563.5766216959314 kvar=512.8531319162655 vminpu=0.85
new load.load_45_B bus1=bus_45.2 Phases=1 kv=157.6864406779661 kw=2243.932672668127 kvar=736.0099166351457 vminpu=0.85
new load.load_46_B bus1=bus_46.2 Phases=1 kv=157.6864406779661 kw=2706.96467914964 kvar=887.8844147610819 vminpu=0.85
new load.load_47_B bus1=bus_47.2 Phases=1 kv=157.6864406779661 kw=1563.9722336170275 kvar=512.982892626385 vminpu=0.85
new load.load_47_C bus1=bus_47.3 Phases=1 kv=157.6864406779661 kw=860.9181919527931 kvar=282.38116696051617 vminpu=0.85
new load.load_48_B bus1=bus_48.2 Phases=1 kv=157.6864406779661 kw=2152.102327977868 kvar=705.8895635767407 vminpu=0.85
new load.load_48_C bus1=bus_48.3 Phases=1 kv=157.6864406779661 kw=278.46989563886655 kvar=91.33812576954823 vminpu=0.85
new load.load_49_B bus1=bus_49.2 Phases=1 kv=157.6864406779661 kw=1350.9610446549946 kvar=443.1152226468382 vminpu=0.85
new load.load_49_C bus1=bus_49.3 Phases=1 kv=157.6864406779661 kw=602.1094905726379 kvar=197.49191290782525 vminpu=0.85
new load.load_50_C bus1=bus_50.3 Phases=1 kv=157.6864406779661 kw=2068.999088464925 kvar=678.6317010164954 vminpu=0.85
new load.load_51_C bus1=bus_51.3 Phases=1 kv=157.6864406779661 kw=2288.950324459874 kvar=750.7757064228388 vminpu=0.85
new load.load_52_A bus1=bus_52.1 Phases=1 kv=157.6864406779661 kw=2362.0571467982422 kvar=774.7547441498235 vminpu=0.85
new load.load_53_A bus1=bus_53.1 Phases=1 kv=157.6864406779661 kw=1961.1231335968423 kvar=643.2483878197643 vminpu=0.85
new load.load_54_A bus1=bus_54.1 Phases=1 kv=157.6864406779661 kw=1950.290462688507 kvar=639.6952717618303 vminpu=0.85
new load.load_55_A bus1=bus_55.1 Phases=1 kv=157.6864406779661 kw=1543.561968408904 kvar=506.28832563812057 vminpu=0.85
new load.load_56_B bus1=bus_56.2 Phases=1 kv=157.6864406779661 kw=26.76297083179507 kvar=8.778254432828783 vminpu=0.85
new load.load_56_C bus1=bus_56.3 Phases=1 kv=157.6864406779661 kw=1467.988591924006 kvar=481.500258151074 vminpu=0.85
new load.load_57_C bus1=bus_57.3 Phases=1 kv=157.6864406779661 kw=1861.928136570244 kvar=610.7124287950401 vminpu=0.85
new load.load_58_A bus1=bus_58.1 Phases=1 kv=157.6864406779661 kw=2102.607366819277 kvar=689.6552163167229 vminpu=0.85
new load.load_59_A bus1=bus_59.1 Phases=1 kv=157.6864406779661 kw=2076.5599837369414 kvar=681.1116746657168 vminpu=0.85
new load.load_60_A bus1=bus_60.1 Phases=1 kv=157.6864406779661 kw=1751.4675829577773 kvar=574.481367210151 vminpu=0.85
new load.load_61_A bus1=bus_61.1 Phases=1 kv=157.6864406779661 kw=1442.370358110515 kvar=473.09747746024897 vminpu=0.85
new load.load_62_A bus1=bus_62.1 Phases=1 kv=157.6864406779661 kw=1938.8975354786048 kvar=635.9583916369824 vminpu=0.85
new load.load_63_A bus1=bus_63.1 Phases=1 kv=157.6864406779661 kw=2548.113399632104 kvar=835.7811950793301 vminpu=0.85
new load.load_64_A bus1=bus_64.1 Phases=1 kv=157.6864406779661 kw=1752.543093357985 kvar=574.8341346214191 vminpu=0.85
new load.load_65_B bus1=bus_65.2 Phases=1 kv=157.6864406779661 kw=304.3309572276865 kvar=99.82055397068117 vminpu=0.85
new load.load_65_C bus1=bus_65.3 Phases=1 kv=157.6864406779661 kw=1227.1447022821487 kvar=402.5034623485448 vminpu=0.85
new load.load_66_B bus1=bus_66.2 Phases=1 kv=157.6864406779661 kw=312.90681779333926 kvar=102.63343623621527 vminpu=0.85
new load.load_66_C bus1=bus_66.3 Phases=1 kv=157.6864406779661 kw=1176.5262658662589 kvar=385.9006152041329 vminpu=0.85
new load.load_67_A bus1=bus_67.1 Phases=1 kv=157.6864406779661 kw=2397.478464893647 kvar=786.3729364851163 vminpu=0.85
new load.load_69_B bus1=bus_69.2 Phases=1 kv=157.6864406779661 kw=142.52605118644 kvar=46.74854478915232 vminpu=0.85
new load.load_69_C bus1=bus_69.3 Phases=1 kv=157.6864406779661 kw=1572.7779880040496 kvar=515.8711800653283 vminpu=0.85
new load.load_70_B bus1=bus_70.2 Phases=1 kv=157.6864406779661 kw=1161.679592425281 kvar=381.0309063154922 vminpu=0.85
new load.load_70_C bus1=bus_70.3 Phases=1 kv=157.6864406779661 kw=306.44000931029035 kvar=100.51232305377523 vminpu=0.85
new load.load_71_B bus1=bus_71.2 Phases=1 kv=157.6864406779661 kw=1358.001283895718 kvar=445.42442111779553 vminpu=0.85
new load.load_71_C bus1=bus_71.3 Phases=1 kv=157.6864406779661 kw=198.8696890817217 kvar=65.22925801880473 vminpu=0.85
new load.load_72_B bus1=bus_72.2 Phases=1 kv=157.6864406779661 kw=1195.505007830243 kvar=392.1256425683197 vminpu=0.85
new load.load_72_C bus1=bus_72.3 Phases=1 kv=157.6864406779661 kw=694.3076180621798 kvar=227.732898724395 vminpu=0.85
new load.load_73_B bus1=bus_73.2 Phases=1 kv=157.6864406779661 kw=2073.859839498498 kvar=680.2260273555073 vminpu=0.85
new load.load_73_C bus1=bus_73.3 Phases=1 kv=157.6864406779661 kw=208.42678023447309 kvar=68.36398391690717 vminpu=0.85
new load.load_74_B bus1=bus_74.2 Phases=1 kv=157.6864406779661 kw=277.4666472023682 kvar=91.00906028237678 vminpu=0.85
new load.load_74_C bus1=bus_74.3 Phases=1 kv=157.6864406779661 kw=1758.307528457267 kvar=576.7248693339835 vminpu=0.85
new load.load_75_A bus1=bus_75.1 Phases=1 kv=157.6864406779661 kw=573.1029735840639 kvar=187.97777533557297 vminpu=0.85
new load.load_75_B bus1=bus_75.2 Phases=1 kv=157.6864406779661 kw=1655.9370259662253 kvar=543.1473445169219 vminpu=0.85
new load.load_76_A bus1=bus_76.1 Phases=1 kv=157.6864406779661 kw=2071.389894264312 kvar=679.4158853186943 vminpu=0.85
new load.load_76_B bus1=bus_76.2 Phases=1 kv=157.6864406779661 kw=216.12214206793152 kvar=70.88806259828154 vminpu=0.85
new load.load_77_A bus1=bus_77.1 Phases=1 kv=157.6864406779661 kw=1737.6351004645553 kvar=569.9443129523742 vminpu=0.85
new load.load_77_B bus1=bus_77.2 Phases=1 kv=157.6864406779661 kw=622.2068590382515 kvar=204.0838497645465 vminpu=0.85
new load.load_78_A bus1=bus_78.1 Phases=1 kv=157.6864406779661 kw=234.12654064255943 kvar=76.7935053307595 vminpu=0.85
new load.load_78_B bus1=bus_78.2 Phases=1 kv=157.6864406779661 kw=1861.493579206379 kvar=610.5698939796923 vminpu=0.85
new load.load_79_A bus1=bus_79.1 Phases=1 kv=157.6864406779661 kw=519.8563983727669 kvar=170.51289866626755 vminpu=0.85
new load.load_79_B bus1=bus_79.2 Phases=1 kv=157.6864406779661 kw=1375.555690318175 kvar=451.18226642436144 vminpu=0.85
new load.load_80_A bus1=bus_80.1 Phases=1 kv=157.6864406779661 kw=2386.2434177692658 kvar=782.6878410283192 vminpu=0.85
new load.load_81_A bus1=bus_81.1 Phases=1 kv=157.6864406779661 kw=76.1668149272744 kvar=24.982715296146004 vminpu=0.85
new load.load_81_B bus1=bus_81.2 Phases=1 kv=157.6864406779661 kw=864.0864868409549 kvar=283.4203676838332 vminpu=0.85
new load.load_82_A bus1=bus_82.1 Phases=1 kv=157.6864406779661 kw=918.9093730866324 kvar=301.40227437241543 vminpu=0.85
new load.load_82_B bus1=bus_82.2 Phases=1 kv=157.6864406779661 kw=887.8471649027931 kvar=291.21387008811615 vminpu=0.85
new load.load_83_A bus1=bus_83.1 Phases=1 kv=157.6864406779661 kw=52.69630878614461 kvar=17.284389281855432 vminpu=0.85
new load.load_83_B bus1=bus_83.2 Phases=1 kv=157.6864406779661 kw=1756.2153591306724 kvar=576.0386377948605 vminpu=0.85
new load.load_84_A bus1=bus_84.1 Phases=1 kv=157.6864406779661 kw=2803.8763121577504 kvar=919.6714303877421 vminpu=0.85
new load.load_85_A bus1=bus_85.1 Phases=1 kv=157.6864406779661 kw=2432.3525197470285 kvar=797.8116264770254 vminpu=0.85
new load.load_86_A bus1=bus_86.1 Phases=1 kv=157.6864406779661 kw=2309.589173198988 kvar=757.5452488092682 vminpu=0.85
new load.load_87_A bus1=bus_87.1 Phases=1 kv=157.6864406779661 kw=2500.054333792262 kvar=820.0178214838619 vminpu=0.85
new load.load_88_A bus1=bus_88.1 Phases=1 kv=157.6864406779661 kw=1471.7189107816532 kvar=482.72380273638225 vminpu=0.85
new load.load_89_A bus1=bus_89.1 Phases=1 kv=157.6864406779661 kw=2274.532626013622 kvar=746.046701332468 vminpu=0.85
new load.load_90_B bus1=bus_90.2 Phases=1 kv=157.6864406779661 kw=2204.446528300215 kvar=723.0584612824706 vminpu=0.85
new load.load_91_B bus1=bus_91.2 Phases=1 kv=157.6864406779661 kw=1945.710654543425 kvar=638.1930946902435 vminpu=0.85
new load.load_92_B bus1=bus_92.2 Phases=1 kv=157.6864406779661 kw=1950.7229844704568 kvar=639.8371389063099 vminpu=0.85
new load.load_93_B bus1=bus_93.2 Phases=1 kv=157.6864406779661 kw=1632.3665067842114 kvar=535.4162142252213 vminpu=0.85
new load.load_94_A bus1=bus_94.1 Phases=1 kv=157.6864406779661 kw=630.4741931175375 kvar=206.7955353425523 vminpu=0.85
new load.load_94_B bus1=bus_94.2 Phases=1 kv=157.6864406779661 kw=1403.1178901886865 kvar=460.2226679818892 vminpu=0.85
new load.load_95_A bus1=bus_95.1 Phases=1 kv=157.6864406779661 kw=1356.654210612577 kvar=444.98258108092523 vminpu=0.85
new load.load_95_B bus1=bus_95.2 Phases=1 kv=157.6864406779661 kw=1365.2039546438473 kvar=447.7868971231819 vminpu=0.85
new load.load_96_A bus1=bus_96.1 Phases=1 kv=157.6864406779661 kw=931.0151445018088 kvar=305.3729673965933 vminpu=0.85
new load.load_96_B bus1=bus_96.2 Phases=1 kv=157.6864406779661 kw=1116.926972001466 kvar=366.3520468164809 vminpu=0.85
new load.load_97_A bus1=bus_97.1 Phases=1 kv=157.6864406779661 kw=1132.376153370869 kvar=371.419378305645 vminpu=0.85
new load.load_97_B bus1=bus_97.2 Phases=1 kv=157.6864406779661 kw=1346.6510712104398 kvar=441.70155135702424 vminpu=0.85
new load.load_98_A bus1=bus_98.1 Phases=1 kv=157.6864406779661 kw=387.0812140972105 kvar=126.96263822388504 vminpu=0.85
new load.load_98_B bus1=bus_98.2 Phases=1 kv=157.6864406779661 kw=2405.889595380412 kvar=789.1317872847752 vminpu=0.85
new load.load_99_A bus1=bus_99.1 Phases=1 kv=157.6864406779661 kw=345.573039748149 kvar=113.34795703739287 vminpu=0.85
new load.load_99_B bus1=bus_99.2 Phases=1 kv=157.6864406779661 kw=1581.300171440375 kvar=518.666456232443 vminpu=0.85
new load.load_100_A bus1=bus_100.1 Phases=1 kv=157.6864406779661 kw=548.9993302141711 kvar=180.07178031024813 vminpu=0.85
new load.load_100_B bus1=bus_100.2 Phases=1 kv=157.6864406779661 kw=1845.1184987369409 kvar=605.1988675857166 vminpu=0.85
new load.load_101_B bus1=bus_101.2 Phases=1 kv=157.6864406779661 kw=1748.2896772136858 kvar=573.439014126089 vminpu=0.85
new load.load_102_A bus1=bus_102.1 Phases=1 kv=157.6864406779661 kw=942.3951942491772 kvar=309.1056237137301 vminpu=0.85
new load.load_102_B bus1=bus_102.2 Phases=1 kv=157.6864406779661 kw=1328.3283720145755 kvar=435.69170602078077 vminpu=0.85
new load.load_103_A bus1=bus_103.1 Phases=1 kv=157.6864406779661 kw=86.396282369085 kvar=28.33798061705988 vminpu=0.85
new load.load_103_B bus1=bus_103.2 Phases=1 kv=157.6864406779661 kw=1815.7651662242472 kvar=595.5709745215531 vminpu=0.85
new load.load_104_A bus1=bus_104.1 Phases=1 kv=157.6864406779661 kw=2160.824254718012 kvar=708.750355547508 vminpu=0.85
new load.load_105_A bus1=bus_105.1 Phases=1 kv=157.6864406779661 kw=747.1284394129275 kvar=245.05812812744023 vminpu=0.85
new load.load_105_B bus1=bus_105.2 Phases=1 kv=157.6864406779661 kw=984.8622201813716 kvar=323.0348082194899 vminpu=0.85
new load.load_106_A bus1=bus_106.1 Phases=1 kv=157.6864406779661 kw=821.362159355832 kvar=269.4067882687129 vminpu=0.85
new load.load_106_B bus1=bus_106.2 Phases=1 kv=157.6864406779661 kw=485.2457314497228 kvar=159.1605999155091 vminpu=0.85
new load.load_107_A bus1=bus_107.1 Phases=1 kv=157.6864406779661 kw=2099.4373968431737 kvar=688.615466164561 vminpu=0.85
new load.load_108_B bus1=bus_108.2 Phases=1 kv=157.6864406779661 kw=1955.0276266613096 kvar=641.2490615449095 vminpu=0.85
new load.load_109_B bus1=bus_109.2 Phases=1 kv=157.6864406779661 kw=1992.0824202724707 kvar=653.4030338493704 vminpu=0.85
new load.load_110_B bus1=bus_110.2 Phases=1 kv=157.6864406779661 kw=2315.023416895508 kvar=759.3276807417267 vminpu=0.85
new load.load_111_B bus1=bus_111.2 Phases=1 kv=157.6864406779661 kw=1620.5664840823554 kvar=531.5458067790125 vminpu=0.85
new load.load_112_A bus1=bus_112.1 Phases=1 kv=157.6864406779661 kw=2285.347039991601 kvar=749.5938291172451 vminpu=0.85
new load.load_113_A bus1=bus_113.1 Phases=1 kv=157.6864406779661 kw=1354.0826928276074 kvar=444.13912324745525 vminpu=0.85
new load.load_114_C bus1=bus_114.3 Phases=1 kv=157.6864406779661 kw=2300.1597792717366 kvar=754.4524076011296 vminpu=0.85
new load.load_115_A bus1=bus_115.1 Phases=1 kv=157.6864406779661 kw=2410.5956088468547 kvar=790.6753597017683 vminpu=0.85
new load.load_116_A bus1=bus_116.1 Phases=1 kv=157.6864406779661 kw=2477.5418309427178 kvar=812.6337205492115 vminpu=0.85
new load.load_117_B bus1=bus_117.2 Phases=1 kv=157.6864406779661 kw=734.2645697170723 kvar=240.83877886719972 vminpu=0.85
new load.load_117_C bus1=bus_117.3 Phases=1 kv=157.6864406779661 kw=812.5762032409076 kvar=266.5249946630177 vminpu=0.85

!---------------- SOLUTION ----------------

set controlmode=off
Set Voltagebases=[157.6864406779661]
calcv
Solve